/*--------------------------------*- C++ -*----------------------------------*\
  =========                 |
  \\      /  F ield         | OpenFOAM: The Open Source CFD Toolbox
   \\    /   O peration     | Website:  https://openfoam.org
    \\  /    A nd           | Version:  10
     \\/     M anipulation  |
\*---------------------------------------------------------------------------*/
FoamFile
{
    format      ascii;
    class       dictionary;
    object      fvSolution;
}
// * * * * * * * * * * * * * * * * * * * * * * * * * * * * * * * * * * * * * //

solvers
{
    p
    {
        solver          GAMG;
        smoother        GaussSeidel;
        tolerance       1e-7;
        relTol          0.01;
    }

    Phi
    {
        $p;
    }

    Urel
    {
        solver          smoothSolver;
        smoother        GaussSeidel;
        tolerance       1e-8;
        relTol          0.1;
        nSweeps         2;
    }

    k
    {
        solver          smoothSolver;
        smoother        GaussSeidel;
        tolerance       1e-8;
        relTol          0.1;
        nSweeps         1;
    }

    "(omega|nuTilda|f|v2)"
    {
        solver          smoothSolver;
        smoother        GaussSeidel;
        tolerance       1e-8;
        relTol          0.1;
        nSweeps         1;
    }
	    
}

SIMPLE
{
    nNonOrthogonalCorrectors 1;
    consistent yes;
//pRefCell    0;
//pRefValue    0;
    residualControl
    {
        p               1e-6;
        Urel            1e-6;
        "(k|epsilon|omega|f|v2)" 1e-5;
    }

}

potentialFlow
{
    nNonOrthogonalCorrectors 10;
}

relaxationFactors
{
	fields
	{
		p	0.3;
	}    
	equations
    	{
        	Urel		0.7;
	        k               0.6;
	        omega           0.6;
		p		0.3;
		nuTilda		0.7;
	}
}

/*cache
{
   grad(U);
}*/

// ************************************************************************* //
