/*--------------------------------*- C++ -*----------------------------------*\
  =========                 |
  \\      /  F ield         | OpenFOAM: The Open Source CFD Toolbox
   \\    /   O peration     | Website:  https://openfoam.org
    \\  /    A nd           | Version:  10
     \\/     M anipulation  |
\*---------------------------------------------------------------------------*/
FoamFile
{
    format      ascii;
    class       volScalarField;
    object      p;
}
// * * * * * * * * * * * * * * * * * * * * * * * * * * * * * * * * * * * * * //

#include        "include/initialConditions"

dimensions      [0 2 -2 0 0 0 0];

internalField   uniform $pressure;

boundaryField
{
    inlet
    {
        type            freestreamPressure;
	freestreamValue	uniform $pressure;
    }

    outlet
    {
        type            freestreamPressure;
        freestreamValue	uniform $pressure;
    }

    outer
    {
        type            freestreamPressure;
	freestreamValue	uniform $pressure;
    }

    seed
    {
        type            zeroGradient;
    }
}

// ************************************************************************* //
