/*--------------------------------*- C++ -*----------------------------------*\
  =========                 |
  \\      /  F ield         | OpenFOAM: The Open Source CFD Toolbox
   \\    /   O peration     | Website:  https://openfoam.org
    \\  /    A nd           | Version:  10
     \\/     M anipulation  |
\*---------------------------------------------------------------------------*/
FoamFile
{
    format      ascii;
    class       dictionary;
    object      blockMeshDict;
}

// * * * * * * * * * * * * * * * * * * * * * * * * * * * * * * * * * * * * * //

convertToMeters 1;

radius 2.828427125;   // Radius of outer cylinder
nRadius -2.828427125;   // Negative Radius of outer cylinder

vertices
(
    (1 1 -3)   
    (-1 1 -3)
    (-1 -1 -3)
    (1 -1 -3)
    (2 2 -3)
    (-2 2 -3)
    (-2 -2 -3)
    (2 -2 -3)

    (1 1 3)   
    (-1 1 3)
    (-1 -1 3)
    (1 -1 3)
    (2 2 3)
    (-2 2 3)
    (-2 -2 3)
    (2 -2 3)

);

blocks
(
    hex (0 1 2 3 8 9 10 11) (20 20 40) simpleGrading (1 1 1)
    hex (0 3 7 4 8 11 15 12) (20 20 40) simpleGrading (1 1 1)
    hex (1 0 4 5 9 8 12 13) (20 20 40) simpleGrading (1 1 1)
    hex (2 1 5 6 10 9 13 14) (20 20 40) simpleGrading (1 1 1)
    hex (3 2 6 7 11 10 14 15) (20 20 40) simpleGrading (1 1 1)
);

edges
(
    arc 7 4 ($radius 0 -3)
    arc 15 12 ($radius 0 3)
    arc 4 5 (0 $radius -3)
    arc 12 13 (0 $radius 3)
    arc 6 5 ($nRadius 0 -3)
    arc 14 13 ($nRadius 0 3)
    arc 7 6 (0 $nRadius -3)
    arc 15 14 (0 $nRadius 3)
);



boundary
(
    inlet
    {
        type patch;
        faces
        (
            (0 3 2 1)
	    (3 0 4 7)
	    (1 5 4 0)
	    (2 6 5 1)
	    (3 7 6 2)
        );
    }
    
    outlet
    {
        type patch;
        faces
        (
            (8 9 10 11)
	    (8 11 15 12)
	    (9 8 12 13)
	    (10 9 13 14)
	    (11 10 14 15)
        );
    }
    outer
    {
        type wall;
        faces
        (
            (4 12 15 7)
	    (4 5 13 12)
	    (5 6 14 13)
	    (6 7 15 14)
        );
    }
);

// ************************************************************************* //
