/*--------------------------------*- C++ -*----------------------------------*\
  =========                 |
  \\      /  F ield         | OpenFOAM: The Open Source CFD Toolbox
   \\    /   O peration     | Website:  https://openfoam.org
    \\  /    A nd           | Version:  10
     \\/     M anipulation  |
\*---------------------------------------------------------------------------*/
FoamFile
{
    format      ascii;
    class       dictionary;
    object      fvSchemes;
}
// * * * * * * * * * * * * * * * * * * * * * * * * * * * * * * * * * * * * * //

ddtSchemes
{
    default         steadyState;
}

gradSchemes
{
    default         Gauss linear;
    //grad(U)         cellLimited Gauss linear 1;
	limited		cellLimited Gauss linear 1;
}

divSchemes
{
    default         none;
    div(phi,Urel)      bounded Gauss linearUpwindV grad(Urel);
    div(phi,nuTilda) bounded Gauss linearUpwind grad(nuTilda);
    //div(phi,k)      bounded Gauss upwind;
    //div(phi,omega)  bounded Gauss upwind;
    //div((nuEff*dev2(T(grad(U))))) Gauss linear;
    div((nuEff*dev2(T(grad(Urel))))) Gauss linear;
}

laplacianSchemes
{
    default         Gauss linear corrected;
}

interpolationSchemes
{
    default         linear;
}

snGradSchemes
{
    default         corrected;
}

wallDist
{
    method meshWave;
}


// ************************************************************************* //
